%chk=C:\Users\aryaz\Desktop\bio_chem_project\data\Fruquintinib.C1.chk
# opt freq=noraman rb3lyp/6-31+g(d,p) geom=connectivity

Frequintinib opt-freq calculation

0 1
 C                 -2.76772333   -5.39927247   -1.68064077
 C                 -2.70002889   -3.94119050   -1.43705948
 C                 -3.55746463   -2.88922563   -1.72540636
 C                 -2.91902543   -1.71697914   -1.19745007
 C                 -3.23744664   -0.34686326   -1.07955558
 C                 -2.31262051    0.51923451   -0.47831047
 C                 -1.08969887    0.03948256   -0.00729127
 C                 -0.76257319   -1.31817556   -0.06964195
 C                 -1.70474798   -2.14820849   -0.67245578
 O                 -1.57513435   -3.49225522   -0.81738839
 O                 -0.25224039    0.93638119    0.61560409
 C                  0.99207621    1.15008948    0.02279184
 C                  1.99009855    1.70657591    0.82709548
 C                  1.84861476    2.03706984    2.19237899
 C                  2.91708878    2.57197193    2.91561257
 C                  4.13213138    2.82541993    2.26476209
 C                  4.25257859    2.48560729    0.90799151
 C                  3.20538808    1.92926427    0.18004420
 N                  3.39613067    1.63470408   -1.11279747
 C                  2.35773147    1.11384928   -1.78264282
 N                  1.14786424    0.85766915   -1.28358061
 O                  5.13121089    3.41666210    2.99078529
 C                  6.33906620    3.75220783    2.31943492
 O                  2.61176611    2.84271904    4.22350679
 C                  3.65955447    2.64203181    5.16621355
 C                 -4.83244717   -3.04674392   -2.40772999
 O                 -5.46082407   -4.10033941   -2.39633525
 N                 -5.25097694   -1.93696263   -3.11170082
 C                 -6.42026684   -1.99855692   -3.94995250
 H                 -3.54702260   -5.85326468   -1.06104188
 H                 -2.99436336   -5.60439728   -2.73142238
 H                 -1.81727777   -5.88655045   -1.44100349
 H                 -4.18955399    0.04490384   -1.42460291
 H                 -2.55107452    1.57554274   -0.37887084
 H                  0.16428266   -1.71324021    0.32480982
 H                  0.90210447    1.86655576    2.70223412
 H                  5.17909971    2.65484119    0.36738709
 H                  2.51776594    0.88050578   -2.82984033
 H                  6.99854075    4.23971260    3.04394490
 H                  6.85025116    2.85427694    1.95737997
 H                  6.15645001    4.46228078    1.50619751
 H                  3.19525492    2.43823703    6.13632274
 H                  4.28830493    1.78019976    4.91636462
 H                  4.25504087    3.55298255    5.27584339
 H                 -4.56039956   -1.22625946   -3.31103029
 H                 -6.71241821   -0.97978776   -4.21451440
 H                 -6.17564430   -2.56145165   -4.85469418
 H                 -7.23811133   -2.49607080   -3.42162835

 1 2 1.0 30 1.0 31 1.0 32 1.0
 2 3 1.5 10 1.5
 3 4 1.5 26 1.0
 4 5 1.5 9 1.5
 5 6 1.5 33 1.0
 6 7 1.5 34 1.0
 7 8 1.5 11 1.0
 8 9 1.5 35 1.0
 9 10 1.5
 10
 11 12 1.0
 12 13 1.5 21 1.5
 13 14 1.5 18 1.5
 14 15 1.5 36 1.0
 15 16 1.5 24 1.0
 16 17 1.5 22 1.0
 17 18 1.5 37 1.0
 18 19 1.5
 19 20 1.5
 20 21 1.5 38 1.0
 21
 22 23 1.0
 23 39 1.0 40 1.0 41 1.0
 24 25 1.0
 25 42 1.0 43 1.0 44 1.0
 26 27 2.0 28 1.0
 27
 28 29 1.0 45 1.0
 29 46 1.0 47 1.0 48 1.0
 30
 31
 32
 33
 34
 35
 36
 37
 38
 39
 40
 41
 42
 43
 44
 45
 46
 47
 48

